/*--------------------------------*- C++ -*----------------------------------*\
| =========                 |                                                 |
| \\      /  F ield         | OpenFOAM: The Open Source CFD Toolbox           |
|  \\    /   O peration     | Version:  v2006                                 |
|   \\  /    A nd           | Website:  www.openfoam.com                      |
|    \\/     M anipulation  |                                                 |
\*---------------------------------------------------------------------------*/
FoamFile
{
    version     2.0;
    format      ascii;
    class       volScalarField;
    location    "0";
    object      epsilon;
}
// * * * * * * * * * * * * * * * * * * * * * * * * * * * * * * * * * * * * * //

dimensions      [0 2 -3 0 0 0 0];

internalField   uniform 6.8e-5;

boundaryField
{
    inlet
    {
        type            turbulentMixingLengthDissipationRateInlet;
	mixingLength	0.01;
        value           uniform 6.8e-5;
    }
    outlet
    {
        type            zeroGradient;
    }
    upperWall
    {
        type            epsilonWallFunction;
        value           uniform 6.8e-5;
    }
    lowerWall
    {
        type            epsilonWallFunction;
        value           uniform 6.8e-5;
    }
    frontAndBackPlanes
    {
        type            empty;
    }
}


// ************************************************************************* //
