/*--------------------------------*- C++ -*----------------------------------*\
| =========                 |                                                 |
| \\      /  F ield         | OpenFOAM: The Open Source CFD Toolbox           |
|  \\    /   O peration     | Version:  v2006                                 |
|   \\  /    A nd           | Website:  www.openfoam.com                      |
|    \\/     M anipulation  |                                                 |
\*---------------------------------------------------------------------------*/
FoamFile
{
    version     2.0;
    format      ascii;
    class       volScalarField;
    location    "0";
    object      k;
}
// * * * * * * * * * * * * * * * * * * * * * * * * * * * * * * * * * * * * * //

dimensions      [0 2 -2 0 0 0 0];

internalField   uniform 3.375e-4;

boundaryField
{
    inlet
    {
        type            turbulentIntensityKineticEnergyInlet;
	intensity	0.05;
        value           uniform 3.375e-4;
    }
    outlet
    {
        type            zeroGradient;
    }
    upperWall
    {
        type            kqRWallFunction;
        value           uniform 3.375e-4;
    }
    lowerWall
    {
        type            kqRWallFunction;
        value           uniform 3.375e-4;
    }
    frontAndBackPlanes
    {
        type            empty;
    }
}


// ************************************************************************* //
